/*--------------------------------*- C++ -*----------------------------------*\
| =========                 |                                                 |
| \\      /  F ield         | OpenFOAM: The Open Source CFD Toolbox           |
|  \\    /   O peration     | Version:  v2006                                 |
|   \\  /    A nd           | Website:  www.openfoam.com                      |
|    \\/     M anipulation  |                                                 |
\*---------------------------------------------------------------------------*/
FoamFile
{
    version     2.0;
    format      ascii;
    class       volVectorField;
    object      U;
}
// * * * * * * * * * * * * * * * * * * * * * * * * * * * * * * * * * * * * * //

dimensions      [0 1 -1 0 0 0 0];

internalField   uniform (0 0 0);

boundaryField
{
    sideX
    {
        type            noSlip;
    }

    sideZ
    {
        type            symmetry;
    }

    lowerWall
    {
        //type            noSlip;
        type            fixedValue;
        value           uniform (0 0.125 0); 
    }

    topWall
    {
        //type            noSlip;
        type            pressureInletOutletVelocity;
        value           uniform (0 0 0);
    }

    wall
    {
        type            noSlip; 
    }
}


// ************************************************************************* //
