 0          /  PSS/E-30.0, 06-Feb-2025 16:05:17
 0 / End of Bus Voltage Constraint data, begin Adjustable Bus Shunt data
 0 / End of Adjustable Bus Shunt data, begin Bus Load data
 0 / End of Bus Load data, begin Adjustable Bus Load Tables
 0 / End of Adjustable Bus Load Tables, begin Generator Dispatch data
745, 1, 1.0, 1
1804, 1, 1.0, 2
1804, 2, 1.0, 3
1964, 1, 1.0, 4
1964, 2, 1.0, 5
1964, 3, 1.0, 6
1360, 1, 1.0, 7
1360, 2, 1.0, 8
1745, 1, 1.0, 9
744, 1, 1.0, 10
1587, 1, 1.0, 11
8022, 1, 1.0, 12
2220, 1, 1.0, 13
2220, 2, 1.0, 14
1748, 1, 1.0, 15
8542, 1, 1.0, 16
8542, 2, 1.0, 17
8542, 3, 1.0, 18
8542, 4, 1.0, 19
8542, 5, 1.0, 20
1743, 1, 1.0, 21
1735, 1, 1.0, 22
1735, 2, 1.0, 23
8578, 1, 1.0, 24
8578, 2, 1.0, 25
8578, 3, 1.0, 26
8578, 4, 1.0, 27
744, 2, 1.0, 28
106, 1, 1.0, 29
106, 2, 1.0, 30
7778, 1, 1.0, 31
7778, 2, 1.0, 32
7778, 3, 1.0, 33
1634, 1, 1.0, 34
1634, 2, 1.0, 35
749, 1, 1.0, 36
339, 1, 1.0, 37
339, 2, 1.0, 38
1286, 1, 1.0, 39
8427, 1, 1.0, 40
170, 1, 1.0, 41
170, 2, 1.0, 42
170, 3, 1.0, 43
170, 4, 1.0, 44
170, 5, 1.0, 45
170, 6, 1.0, 46
170, 7, 1.0, 47
170, 8, 1.0, 48
170, 9, 1.0, 49
170, 10, 1.0, 50
1746, 1, 1.0, 51
1728, 1, 1.0, 52
1728, 2, 1.0, 53
1643, 1, 1.0, 54
1643, 2, 1.0, 55
1734, 1, 1.0, 56
615, 1, 1.0, 57
7971, 1, 1.0, 58
7971, 2, 1.0, 59
7971, 3, 1.0, 60
7971, 4, 1.0, 61
7971, 5, 1.0, 62
7971, 6, 1.0, 63
60, 1, 1.0, 64
1448, 1, 1.0, 65
8553, 1, 1.0, 66
8553, 2, 1.0, 67
1727, 1, 1.0, 68
1727, 2, 1.0, 69
1730, 1, 1.0, 70
1730, 2, 1.0, 71
1730, 3, 1.0, 72
1730, 4, 1.0, 73
1729, 1, 1.0, 74
1729, 2, 1.0, 75
1501, 1, 1.0, 76
1501, 2, 1.0, 77
1501, 3, 1.0, 78
2220, 3, 1.0, 79
2220, 4, 1.0, 80
32, 1, 1.0, 81
32, 2, 1.0, 82
1745, 2, 1.0, 83
746, 1, 1.0, 84
746, 2, 1.0, 85
746, 3, 1.0, 86
1502, 1, 1.0, 87
1890, 1, 1.0, 88
8623, 1, 1.0, 89
8623, 2, 1.0, 90
1892, 1, 1.0, 91
1892, 2, 1.0, 92
1745, 3, 1.0, 93
1958, 1, 1.0, 94
1755, 1, 1.0, 95
1755, 2, 1.0, 96
1724, 1, 1.0, 97
1724, 2, 1.0, 98
8064, 1, 1.0, 99
8064, 2, 1.0, 100
8064, 3, 1.0, 101
8064, 4, 1.0, 102
8064, 5, 1.0, 103
1723, 1, 1.0, 104
1722, 1, 1.0, 105
1722, 2, 1.0, 106
8113, 1, 1.0, 107
8113, 2, 1.0, 108
8113, 3, 1.0, 109
1632, 1, 1.0, 110
1632, 2, 1.0, 111
1632, 3, 1.0, 112
1632, 4, 1.0, 113
1644, 1, 1.0, 114
1644, 2, 1.0, 115
1644, 3, 1.0, 116
1644, 4, 1.0, 117
1644, 5, 1.0, 118
1635, 1, 1.0, 119
1635, 2, 1.0, 120
1632, 5, 1.0, 121
1632, 6, 1.0, 122
1631, 1, 1.0, 123
1631, 2, 1.0, 124
1631, 3, 1.0, 125
8381, 1, 1.0, 126
8381, 2, 1.0, 127
8381, 3, 1.0, 128
1629, 1, 1.0, 129
1629, 2, 1.0, 130
1629, 3, 1.0, 131
1629, 4, 1.0, 132
1629, 5, 1.0, 133
2312, 1, 1.0, 134
2312, 2, 1.0, 135
2247, 1, 1.0, 136
285, 1, 1.0, 137
285, 2, 1.0, 138
285, 3, 1.0, 139
990, 1, 1.0, 140
990, 2, 1.0, 141
8343, 1, 1.0, 142
2313, 1, 1.0, 143
1663, 1, 1.0, 144
1663, 2, 1.0, 145
1662, 1, 1.0, 146
1662, 2, 1.0, 147
1662, 3, 1.0, 148
1662, 4, 1.0, 149
8347, 1, 1.0, 150
8347, 2, 1.0, 151
8347, 3, 1.0, 152
8347, 4, 1.0, 153
1636, 1, 1.0, 154
1636, 2, 1.0, 155
1483, 1, 1.0, 156
1483, 2, 1.0, 157
1602, 1, 1.0, 158
7747, 1, 1.0, 159
7747, 2, 1.0, 160
7747, 3, 1.0, 161
2361, 1, 1.0, 162
2361, 2, 1.0, 163
7808, 1, 1.0, 164
7808, 2, 1.0, 165
7808, 3, 1.0, 166
7808, 4, 1.0, 167
7808, 5, 1.0, 168
7808, 6, 1.0, 169
1842, 1, 1.0, 170
1842, 2, 1.0, 171
1842, 3, 1.0, 172
1842, 4, 1.0, 173
1892, 3, 1.0, 174
1892, 4, 1.0, 175
2237, 1, 1.0, 176
2237, 2, 1.0, 177
2237, 3, 1.0, 178
1693, 1, 1.0, 179
1693, 2, 1.0, 180
1693, 3, 1.0, 181
1693, 4, 1.0, 182
1693, 5, 1.0, 183
1693, 6, 1.0, 184
1693, 7, 1.0, 185
1693, 8, 1.0, 186
1446, 1, 1.0, 187
1446, 2, 1.0, 188
1446, 3, 1.0, 189
1446, 4, 1.0, 190
1446, 5, 1.0, 191
194, 1, 1.0, 192
194, 2, 1.0, 193
1719, 1, 1.0, 194
1719, 2, 1.0, 195
1718, 1, 1.0, 196
1718, 2, 1.0, 197
1528, 1, 1.0, 198
1528, 2, 1.0, 199
7751, 1, 1.0, 200
7751, 2, 1.0, 201
7751, 3, 1.0, 202
7751, 4, 1.0, 203
7751, 5, 1.0, 204
7751, 6, 1.0, 205
7751, 7, 1.0, 206
1639, 1, 1.0, 207
8832, 1, 1.0, 208
371, 1, 1.0, 209
209, 1, 1.0, 210
209, 2, 1.0, 211
346, 1, 1.0, 212
346, 2, 1.0, 213
346, 3, 1.0, 214
346, 4, 1.0, 215
346, 5, 1.0, 216
346, 6, 1.0, 217
346, 7, 1.0, 218
346, 8, 1.0, 219
2401, 1, 1.0, 220
2401, 2, 1.0, 221
2401, 3, 1.0, 222
2401, 4, 1.0, 223
2401, 5, 1.0, 224
2401, 6, 1.0, 225
2401, 7, 1.0, 226
2401, 8, 1.0, 227
2401, 9, 1.0, 228
2401, 10, 1.0, 229
2401, 11, 1.0, 230
1606, 1, 1.0, 231
8832, 2, 1.0, 232
8832, 3, 1.0, 233
7773, 1, 1.0, 234
7773, 2, 1.0, 235
7773, 3, 1.0, 236
7773, 4, 1.0, 237
7773, 5, 1.0, 238
7773, 6, 1.0, 239
1606, 2, 1.0, 240
8018, 1, 1.0, 241
8018, 2, 1.0, 242
8018, 3, 1.0, 243
8018, 4, 1.0, 244
615, 2, 1.0, 245
745, 2, 1.0, 246
744, 3, 1.0, 247
1888, 1, 1.0, 248
1887, 1, 1.0, 249
1593, 1, 1.0, 250
1593, 2, 1.0, 251
1593, 3, 1.0, 252
8400, 1, 1.0, 253
426, 1, 1.0, 254
426, 2, 1.0, 255
426, 3, 1.0, 256
426, 4, 1.0, 257
426, 5, 1.0, 258
426, 6, 1.0, 259
1500, 1, 1.0, 260
8565, 1, 1.0, 261
8565, 2, 1.0, 262
2221, 1, 1.0, 263
2221, 2, 1.0, 264
1586, 1, 1.0, 265
1586, 2, 1.0, 266
1586, 3, 1.0, 267
1586, 4, 1.0, 268
1584, 1, 1.0, 269
1585, 1, 1.0, 270
1005, 1, 1.0, 271
1005, 2, 1.0, 272
1005, 3, 1.0, 273
1005, 4, 1.0, 274
8400, 2, 1.0, 275
8400, 3, 1.0, 276
8400, 4, 1.0, 277
8400, 5, 1.0, 278
8400, 6, 1.0, 279
8400, 7, 1.0, 280
1891, 1, 1.0, 281
1891, 2, 1.0, 282
1891, 3, 1.0, 283
1891, 4, 1.0, 284
8684, 1, 1.0, 285
8684, 2, 1.0, 286
8684, 3, 1.0, 287
1733, 1, 1.0, 288
1733, 2, 1.0, 289
8414, 1, 1.0, 290
8414, 2, 1.0, 291
8414, 3, 1.0, 292
2339, 1, 1.0, 293
2339, 2, 1.0, 294
1498, 1, 1.0, 295
1498, 2, 1.0, 296
1498, 3, 1.0, 297
1498, 4, 1.0, 298
1498, 5, 1.0, 299
1498, 6, 1.0, 300
1498, 7, 1.0, 301
8724, 1, 1.0, 302
8724, 2, 1.0, 303
8724, 3, 1.0, 304
8724, 4, 1.0, 305
1642, 1, 1.0, 306
1642, 2, 1.0, 307
1642, 3, 1.0, 308
1642, 4, 1.0, 309
1642, 5, 1.0, 310
1642, 6, 1.0, 311
1642, 7, 1.0, 312
1642, 8, 1.0, 313
1742, 1, 1.0, 314
1742, 2, 1.0, 315
1731, 1, 1.0, 316
1731, 2, 1.0, 317
8671, 1, 1.0, 318
8671, 2, 1.0, 319
1045, 1, 1.0, 320
1045, 2, 1.0, 321
1955, 1, 1.0, 322
799, 1, 1.0, 323
1865, 1, 1.0, 324
2056, 1, 1.0, 325
706, 1, 1.0, 326
707, 1, 1.0, 327
105, 1, 1.0, 328
1786, 1, 1.0, 329
1786, 2, 1.0, 330
1786, 3, 1.0, 331
195, 1, 1.0, 332
195, 2, 1.0, 333
195, 3, 1.0, 334
206, 1, 1.0, 335
8542, 6, 1.0, 336
103, 1, 1.0, 337
1645, 1, 1.0, 338
1954, 1, 1.0, 339
1582, 1, 1.0, 340
662, 1, 1.0, 341
2250, 1, 1.0, 342
284, 1, 1.0, 343
8292, 1, 1.0, 344
8292, 2, 1.0, 345
1872, 1, 1.0, 346
1872, 2, 1.0, 347
1872, 3, 1.0, 348
1872, 4, 1.0, 349
1951, 1, 1.0, 350
1951, 2, 1.0, 351
2248, 1, 1.0, 352
2248, 2, 1.0, 353
557, 1, 1.0, 354
557, 2, 1.0, 355
1610, 1, 1.0, 356
1610, 2, 1.0, 357
1610, 3, 1.0, 358
367, 1, 1.0, 359
420, 1, 1.0, 360
420, 2, 1.0, 361
420, 3, 1.0, 362
1752, 1, 1.0, 363
1752, 2, 1.0, 364
1752, 3, 1.0, 365
1752, 4, 1.0, 366
1752, 5, 1.0, 367
1752, 6, 1.0, 368
8215, 1, 1.0, 369
350, 1, 1.0, 370
1863, 1, 1.0, 371
420, 4, 1.0, 372
420, 5, 1.0, 373
529, 1, 1.0, 374
707, 2, 1.0, 375
1296, 1, 1.0, 376
1296, 2, 1.0, 377
1841, 1, 1.0, 378
1841, 2, 1.0, 379
1841, 3, 1.0, 380
49, 1, 1.0, 381
1845, 1, 1.0, 382
1845, 2, 1.0, 383
1845, 3, 1.0, 384
158, 1, 1.0, 385
158, 2, 1.0, 386
1732, 1, 1.0, 387
2409, 1, 1.0, 388
2409, 2, 1.0, 389
1801, 1, 1.0, 390
1801, 2, 1.0, 391
1801, 3, 1.0, 392
1801, 4, 1.0, 393
1801, 5, 1.0, 394
1801, 6, 1.0, 395
1801, 7, 1.0, 396
1801, 8, 1.0, 397
1801, 9, 1.0, 398
1499, 1, 1.0, 399
1499, 2, 1.0, 400
1499, 3, 1.0, 401
1499, 4, 1.0, 402
1499, 5, 1.0, 403
1499, 6, 1.0, 404
2220, 5, 1.0, 405
1762, 1, 1.0, 406
1762, 2, 1.0, 407
552, 1, 1.0, 408
552, 2, 1.0, 409
552, 3, 1.0, 410
552, 4, 1.0, 411
552, 5, 1.0, 412
1787, 1, 1.0, 413
1617, 1, 1.0, 414
1617, 2, 1.0, 415
2306, 1, 1.0, 416
1783, 1, 1.0, 417
1783, 2, 1.0, 418
1783, 3, 1.0, 419
1783, 4, 1.0, 420
1775, 1, 1.0, 421
1775, 2, 1.0, 422
1775, 3, 1.0, 423
1775, 4, 1.0, 424
7882, 1, 1.0, 425
7882, 2, 1.0, 426
8495, 1, 1.0, 427
8495, 2, 1.0, 428
1646, 1, 1.0, 429
1646, 2, 1.0, 430
1646, 3, 1.0, 431
1677, 1, 1.0, 432
1875, 1, 1.0, 433
1875, 2, 1.0, 434
1875, 3, 1.0, 435
1875, 4, 1.0, 436
1875, 5, 1.0, 437
1875, 6, 1.0, 438
1875, 7, 1.0, 439
1875, 8, 1.0, 440
1875, 9, 1.0, 441
351, 1, 1.0, 442
1222, 1, 1.0, 443
1641, 1, 1.0, 444
1056, 1, 1.0, 445
1056, 2, 1.0, 446
1056, 3, 1.0, 447
1056, 4, 1.0, 448
1821, 1, 1.0, 449
1821, 2, 1.0, 450
1443, 1, 1.0, 451
165, 1, 1.0, 452
1703, 1, 1.0, 453
1703, 2, 1.0, 454
1703, 3, 1.0, 455
1703, 4, 1.0, 456
243, 1, 1.0, 457
2246, 1, 1.0, 458
1409, 1, 1.0, 459
1409, 2, 1.0, 460
300, 1, 1.0, 461
300, 2, 1.0, 462
751, 1, 1.0, 463
1700, 1, 1.0, 464
1700, 2, 1.0, 465
8199, 1, 1.0, 466
8199, 2, 1.0, 467
8199, 3, 1.0, 468
8199, 4, 1.0, 469
2203, 1, 1.0, 470
989, 1, 1.0, 471
989, 2, 1.0, 472
1699, 1, 1.0, 473
1699, 2, 1.0, 474
1699, 3, 1.0, 475
1699, 4, 1.0, 476
1699, 5, 1.0, 477
1699, 6, 1.0, 478
1571, 1, 1.0, 479
1660, 1, 1.0, 480
1660, 2, 1.0, 481
774, 1, 1.0, 482
1753, 1, 1.0, 483
1057, 1, 1.0, 484
1057, 2, 1.0, 485
1057, 3, 1.0, 486
1653, 1, 1.0, 487
1653, 2, 1.0, 488
1016, 1, 1.0, 489
1016, 2, 1.0, 490
1833, 1, 1.0, 491
1833, 2, 1.0, 492
1827, 1, 1.0, 493
1826, 1, 1.0, 494
1825, 1, 1.0, 495
1823, 1, 1.0, 496
1824, 1, 1.0, 497
7911, 1, 1.0, 498
7911, 2, 1.0, 499
1572, 1, 1.0, 500
1698, 1, 1.0, 501
1620, 1, 1.0, 502
1620, 2, 1.0, 503
1620, 3, 1.0, 504
1621, 1, 1.0, 505
1621, 2, 1.0, 506
1620, 4, 1.0, 507
1620, 5, 1.0, 508
1620, 6, 1.0, 509
1665, 1, 1.0, 510
1665, 2, 1.0, 511
1665, 3, 1.0, 512
1665, 4, 1.0, 513
274, 1, 1.0, 514
1251, 1, 1.0, 515
1933, 1, 1.0, 516
1933, 2, 1.0, 517
1704, 1, 1.0, 518
481, 1, 1.0, 519
481, 2, 1.0, 520
1712, 1, 1.0, 521
1710, 1, 1.0, 522
1711, 1, 1.0, 523
2338, 1, 1.0, 524
360, 1, 1.0, 525
360, 2, 1.0, 526
1019, 1, 1.0, 527
1019, 2, 1.0, 528
1828, 1, 1.0, 529
333, 1, 1.0, 530
1745, 4, 1.0, 531
1855, 1, 1.0, 532
8196, 1, 1.0, 533
8196, 2, 1.0, 534
8196, 3, 1.0, 535
8196, 4, 1.0, 536
1708, 1, 1.0, 537
1717, 1, 1.0, 538
1717, 2, 1.0, 539
159, 1, 1.0, 540
1651, 1, 1.0, 541
1893, 1, 1.0, 542
1567, 1, 1.0, 543
1885, 1, 1.0, 544
138, 1, 1.0, 545
304, 1, 1.0, 546
304, 2, 1.0, 547
1656, 1, 1.0, 548
1656, 2, 1.0, 549
1656, 3, 1.0, 550
1659, 1, 1.0, 551
1659, 2, 1.0, 552
1659, 3, 1.0, 553
1657, 1, 1.0, 554
1657, 2, 1.0, 555
1657, 3, 1.0, 556
333, 2, 1.0, 557
344, 1, 1.0, 558
344, 2, 1.0, 559
233, 1, 1.0, 560
262, 1, 1.0, 561
175, 1, 1.0, 562
175, 2, 1.0, 563
175, 3, 1.0, 564
1118, 1, 1.0, 565
1118, 2, 1.0, 566
1118, 3, 1.0, 567
1118, 4, 1.0, 568
1118, 5, 1.0, 569
1118, 6, 1.0, 570
1118, 7, 1.0, 571
1480, 1, 1.0, 572
1480, 2, 1.0, 573
1129, 1, 1.0, 574
1692, 1, 1.0, 575
8434, 1, 1.0, 576
8434, 2, 1.0, 577
8434, 3, 1.0, 578
1920, 1, 1.0, 579
1665, 5, 1.0, 580
1665, 6, 1.0, 581
1665, 7, 1.0, 582
1665, 8, 1.0, 583
1877, 1, 1.0, 584
1735, 3, 1.0, 585
270, 1, 1.0, 586
1299, 1, 1.0, 587
1299, 2, 1.0, 588
1734, 2, 1.0, 589
686, 1, 1.0, 590
686, 2, 1.0, 591
1709, 1, 1.0, 592
1709, 2, 1.0, 593
363, 1, 1.0, 594
363, 2, 1.0, 595
363, 3, 1.0, 596
363, 4, 1.0, 597
363, 5, 1.0, 598
363, 6, 1.0, 599
1168, 1, 1.0, 600
1727, 3, 1.0, 601
1895, 1, 1.0, 602
1895, 2, 1.0, 603
1895, 3, 1.0, 604
1040, 1, 1.0, 605
1040, 2, 1.0, 606
1040, 3, 1.0, 607
1858, 1, 1.0, 608
1852, 1, 1.0, 609
68, 1, 1.0, 610
525, 1, 1.0, 611
8472, 1, 1.0, 612
1457, 1, 1.0, 613
1932, 1, 1.0, 614
76, 1, 1.0, 615
125, 1, 1.0, 616
125, 2, 1.0, 617
125, 3, 1.0, 618
125, 4, 1.0, 619
1889, 1, 1.0, 620
1893, 2, 1.0, 621
1893, 3, 1.0, 622
1858, 2, 1.0, 623
1858, 3, 1.0, 624
1522, 1, 1.0, 625
1522, 2, 1.0, 626
1522, 3, 1.0, 627
239, 1, 1.0, 628
239, 2, 1.0, 629
1666, 1, 1.0, 630
1666, 2, 1.0, 631
248, 1, 1.0, 632
248, 2, 1.0, 633
1702, 1, 1.0, 634
1702, 2, 1.0, 635
1702, 3, 1.0, 636
2203, 2, 1.0, 637
2203, 3, 1.0, 638
1848, 1, 1.0, 639
2399, 1, 1.0, 640
1807, 1, 1.0, 641
554, 1, 1.0, 642
384, 1, 1.0, 643
384, 2, 1.0, 644
384, 3, 1.0, 645
1849, 1, 1.0, 646
1860, 1, 1.0, 647
1447, 1, 1.0, 648
1614, 1, 1.0, 649
1614, 2, 1.0, 650
394, 1, 1.0, 651
253, 1, 1.0, 652
1690, 1, 1.0, 653
1690, 2, 1.0, 654
1223, 1, 1.0, 655
1223, 2, 1.0, 656
1223, 3, 1.0, 657
1223, 4, 1.0, 658
467, 1, 1.0, 659
467, 2, 1.0, 660
467, 3, 1.0, 661
1384, 1, 1.0, 662
2234, 1, 1.0, 663
8403, 1, 1.0, 664
713, 1, 1.0, 665
713, 2, 1.0, 666
713, 3, 1.0, 667
1533, 1, 1.0, 668
1533, 2, 1.0, 669
1920, 2, 1.0, 670
1920, 3, 1.0, 671
2196, 1, 1.0, 672
2196, 2, 1.0, 673
2196, 3, 1.0, 674
1674, 1, 1.0, 675
1674, 2, 1.0, 676
1674, 3, 1.0, 677
8680, 1, 1.0, 678
8680, 2, 1.0, 679
8680, 3, 1.0, 680
8680, 4, 1.0, 681
796, 1, 1.0, 682
1681, 1, 1.0, 683
1681, 2, 1.0, 684
1600, 1, 1.0, 685
1600, 2, 1.0, 686
1600, 3, 1.0, 687
2136, 1, 1.0, 688
2136, 2, 1.0, 689
1847, 1, 1.0, 690
1847, 2, 1.0, 691
1455, 1, 1.0, 692
1455, 2, 1.0, 693
653, 1, 1.0, 694
1292, 1, 1.0, 695
1123, 1, 1.0, 696
1576, 1, 1.0, 697
1576, 2, 1.0, 698
1333, 1, 1.0, 699
1333, 2, 1.0, 700
1333, 3, 1.0, 701
1323, 1, 1.0, 702
483, 1, 1.0, 703
519, 1, 1.0, 704
519, 2, 1.0, 705
519, 3, 1.0, 706
253, 2, 1.0, 707
253, 3, 1.0, 708
1686, 1, 1.0, 709
1686, 2, 1.0, 710
1686, 3, 1.0, 711
1675, 1, 1.0, 712
1675, 2, 1.0, 713
253, 4, 1.0, 714
253, 5, 1.0, 715
112, 1, 1.0, 716
112, 2, 1.0, 717
8239, 1, 1.0, 718
8239, 2, 1.0, 719
8239, 3, 1.0, 720
8239, 4, 1.0, 721
1920, 4, 1.0, 722
1920, 5, 1.0, 723
1920, 6, 1.0, 724
1920, 7, 1.0, 725
539, 1, 1.0, 726
539, 2, 1.0, 727
714, 1, 1.0, 728
714, 2, 1.0, 729
714, 3, 1.0, 730
714, 4, 1.0, 731
714, 5, 1.0, 732
714, 6, 1.0, 733
1675, 3, 1.0, 734
1675, 4, 1.0, 735
1675, 5, 1.0, 736
1675, 6, 1.0, 737
1924, 1, 1.0, 738
1924, 2, 1.0, 739
1599, 1, 1.0, 740
1599, 2, 1.0, 741
1599, 3, 1.0, 742
1680, 1, 1.0, 743
1936, 1, 1.0, 744
1680, 2, 1.0, 745
1557, 1, 1.0, 746
1557, 2, 1.0, 747
1557, 3, 1.0, 748
2203, 4, 1.0, 749
1928, 1, 1.0, 750
1931, 1, 1.0, 751
1931, 2, 1.0, 752
8593, 1, 1.0, 753
1753, 2, 1.0, 754
465, 1, 1.0, 755
367, 2, 1.0, 756
367, 3, 1.0, 757
1717, 3, 1.0, 758
1163, 1, 1.0, 759
446, 1, 1.0, 760
446, 2, 1.0, 761
446, 3, 1.0, 762
446, 4, 1.0, 763
1932, 2, 1.0, 764
1933, 3, 1.0, 765
1989, 1, 1.0, 766
1989, 2, 1.0, 767
166, 1, 1.0, 768
1116, 1, 1.0, 769
1116, 2, 1.0, 770
1425, 1, 1.0, 771
1668, 1, 1.0, 772
1675, 7, 1.0, 773
1937, 1, 1.0, 774
1937, 2, 1.0, 775
1703, 5, 1.0, 776
1703, 6, 1.0, 777
1783, 5, 1.0, 778
1854, 1, 1.0, 779
1887, 2, 1.0, 780
1887, 3, 1.0, 781
1887, 4, 1.0, 782
7649, 1, 1.0, 783
7649, 2, 1.0, 784
7649, 3, 1.0, 785
7649, 4, 1.0, 786
7649, 5, 1.0, 787
1680, 3, 1.0, 788
1848, 2, 1.0, 789
1848, 3, 1.0, 790
6, 1, 1.0, 791
1857, 1, 1.0, 792
2407, 1, 1.0, 793
1857, 2, 1.0, 794
295, 1, 1.0, 795
1721, 1, 1.0, 796
1721, 2, 1.0, 797
1721, 3, 1.0, 798
1721, 4, 1.0, 799
1519, 1, 1.0, 800
1519, 2, 1.0, 801
1932, 3, 1.0, 802
1927, 1, 1.0, 803
1927, 2, 1.0, 804
1592, 1, 1.0, 805
1592, 2, 1.0, 806
1592, 3, 1.0, 807
1933, 4, 1.0, 808
1096, 1, 1.0, 809
636, 1, 1.0, 810
636, 2, 1.0, 811
636, 3, 1.0, 812
1707, 1, 1.0, 813
2117, 1, 1.0, 814
1086, 1, 1.0, 815
1086, 2, 1.0, 816
1086, 3, 1.0, 817
1086, 4, 1.0, 818
1389, 1, 1.0, 819
1389, 2, 1.0, 820
1389, 3, 1.0, 821
282, 1, 1.0, 822
282, 2, 1.0, 823
282, 3, 1.0, 824
282, 4, 1.0, 825
8018, 5, 1.0, 826
1937, 3, 1.0, 827
1937, 4, 1.0, 828
1937, 5, 1.0, 829
631, 1, 1.0, 830
631, 2, 1.0, 831
1589, 1, 1.0, 832
1589, 2, 1.0, 833
1589, 3, 1.0, 834
8185, 1, 1.0, 835
8185, 2, 1.0, 836
8185, 3, 1.0, 837
8003, 1, 1.0, 838
8003, 2, 1.0, 839
8003, 3, 1.0, 840
1820, 1, 1.0, 841
1820, 2, 1.0, 842
1820, 3, 1.0, 843
2406, 1, 1.0, 844
1671, 1, 1.0, 845
1671, 2, 1.0, 846
1671, 3, 1.0, 847
8704, 1, 1.0, 848
8461, 1, 1.0, 849
1050, 1, 1.0, 850
8752, 1, 1.0, 851
1834, 1, 1.0, 852
1834, 2, 1.0, 853
1834, 3, 1.0, 854
1834, 4, 1.0, 855
8838, 1, 1.0, 856
1881, 1, 1.0, 857
1858, 4, 1.0, 858
1858, 5, 1.0, 859
1858, 6, 1.0, 860
1882, 1, 1.0, 861
1882, 2, 1.0, 862
8774, 1, 1.0, 863
2039, 1, 1.0, 864
2039, 2, 1.0, 865
2039, 3, 1.0, 866
2039, 4, 1.0, 867
2209, 1, 1.0, 868
1784, 1, 1.0, 869
8032, 1, 1.0, 870
1785, 1, 1.0, 871
220, 1, 1.0, 872
220, 2, 1.0, 873
220, 3, 1.0, 874
220, 4, 1.0, 875
220, 5, 1.0, 876
1975, 1, 1.0, 877
1975, 2, 1.0, 878
1855, 2, 1.0, 879
1855, 3, 1.0, 880
2300, 1, 1.0, 881
2300, 2, 1.0, 882
2300, 3, 1.0, 883
2300, 4, 1.0, 884
2300, 5, 1.0, 885
7707, 1, 1.0, 886
7707, 2, 1.0, 887
1821, 3, 1.0, 888
1821, 4, 1.0, 889
1821, 5, 1.0, 890
1326, 1, 1.0, 891
1330, 1, 1.0, 892
8461, 2, 1.0, 893
1797, 1, 1.0, 894
1797, 2, 1.0, 895
1797, 3, 1.0, 896
7698, 1, 1.0, 897
7698, 2, 1.0, 898
7698, 3, 1.0, 899
7698, 4, 1.0, 900
7698, 5, 1.0, 901
7698, 6, 1.0, 902
7698, 7, 1.0, 903
7698, 8, 1.0, 904
1844, 1, 1.0, 905
1596, 1, 1.0, 906
2044, 1, 1.0, 907
2332, 1, 1.0, 908
8752, 2, 1.0, 909
8752, 3, 1.0, 910
8752, 4, 1.0, 911
1864, 1, 1.0, 912
1852, 2, 1.0, 913
1239, 1, 1.0, 914
1239, 2, 1.0, 915
1239, 3, 1.0, 916
552, 6, 1.0, 917
552, 7, 1.0, 918
552, 8, 1.0, 919
552, 9, 1.0, 920
552, 10, 1.0, 921
1694, 1, 1.0, 922
1694, 2, 1.0, 923
2217, 1, 1.0, 924
8535, 1, 1.0, 925
8535, 2, 1.0, 926
1806, 1, 1.0, 927
1806, 2, 1.0, 928
1806, 3, 1.0, 929
1236, 1, 1.0, 930
1236, 2, 1.0, 931
1236, 3, 1.0, 932
698, 1, 1.0, 933
698, 2, 1.0, 934
698, 3, 1.0, 935
1853, 1, 1.0, 936
1458, 1, 1.0, 937
1791, 1, 1.0, 938
1791, 2, 1.0, 939
1791, 3, 1.0, 940
1861, 1, 1.0, 941
1861, 2, 1.0, 942
1861, 3, 1.0, 943
1861, 4, 1.0, 944
1859, 1, 1.0, 945
1859, 2, 1.0, 946
1859, 3, 1.0, 947
1859, 4, 1.0, 948
1399, 1, 1.0, 949
1399, 2, 1.0, 950
1399, 3, 1.0, 951
1399, 4, 1.0, 952
1399, 5, 1.0, 953
1399, 6, 1.0, 954
1399, 7, 1.0, 955
1399, 8, 1.0, 956
1399, 9, 1.0, 957
1399, 10, 1.0, 958
1399, 11, 1.0, 959
1399, 12, 1.0, 960
1399, 13, 1.0, 961
1399, 14, 1.0, 962
1399, 15, 1.0, 963
1399, 16, 1.0, 964
1878, 1, 1.0, 965
1878, 2, 1.0, 966
1652, 1, 1.0, 967
1652, 2, 1.0, 968
1918, 1, 1.0, 969
8593, 2, 1.0, 970
1929, 1, 1.0, 971
1186, 1, 1.0, 972
1542, 1, 1.0, 973
1682, 1, 1.0, 974
2396, 1, 1.0, 975
2396, 2, 1.0, 976
2396, 3, 1.0, 977
2396, 4, 1.0, 978
2396, 5, 1.0, 979
2396, 6, 1.0, 980
2396, 7, 1.0, 981
2022, 1, 1.0, 982
2022, 2, 1.0, 983
303, 1, 1.0, 984
1822, 1, 1.0, 985
1822, 2, 1.0, 986
1822, 3, 1.0, 987
8507, 1, 1.0, 988
7823, 1, 1.0, 989
7823, 2, 1.0, 990
7823, 3, 1.0, 991
1298, 1, 1.0, 992
1481, 1, 1.0, 993
1997, 1, 1.0, 994
1997, 2, 1.0, 995
8082, 1, 1.0, 996
668, 1, 1.0, 997
8569, 1, 1.0, 998
8569, 2, 1.0, 999
1595, 1, 1.0, 1000
1595, 2, 1.0, 1001
1595, 3, 1.0, 1002
2107, 1, 1.0, 1003
2107, 2, 1.0, 1004
2107, 3, 1.0, 1005
198, 1, 1.0, 1006
198, 2, 1.0, 1007
302, 1, 1.0, 1008
1058, 1, 1.0, 1009
8461, 3, 1.0, 1010
8461, 4, 1.0, 1011
2208, 1, 1.0, 1012
607, 1, 1.0, 1013
138, 2, 1.0, 1014
1855, 4, 1.0, 1015
8461, 5, 1.0, 1016
8461, 6, 1.0, 1017
8461, 7, 1.0, 1018
8461, 8, 1.0, 1019
2065, 1, 1.0, 1020
2065, 2, 1.0, 1021
181, 1, 1.0, 1022
181, 2, 1.0, 1023
181, 3, 1.0, 1024
181, 4, 1.0, 1025
181, 5, 1.0, 1026
562, 1, 1.0, 1027
562, 2, 1.0, 1028
562, 3, 1.0, 1029
562, 4, 1.0, 1030
859, 1, 1.0, 1031
1199, 1, 1.0, 1032
1199, 2, 1.0, 1033
1199, 3, 1.0, 1034
1199, 4, 1.0, 1035
1199, 5, 1.0, 1036
1199, 6, 1.0, 1037
8148, 1, 1.0, 1038
8148, 2, 1.0, 1039
2212, 1, 1.0, 1040
2212, 2, 1.0, 1041
108, 1, 1.0, 1042
108, 2, 1.0, 1043
108, 3, 1.0, 1044
108, 4, 1.0, 1045
1098, 1, 1.0, 1046
1098, 2, 1.0, 1047
8185, 4, 1.0, 1048
2000, 1, 1.0, 1049
2000, 2, 1.0, 1050
782, 1, 1.0, 1051
2118, 1, 1.0, 1052
1885, 2, 1.0, 1053
8357, 1, 1.0, 1054
999, 1, 1.0, 1055
1330, 2, 1.0, 1056
8357, 2, 1.0, 1057
1993, 1, 1.0, 1058
2365, 1, 1.0, 1059
2365, 2, 1.0, 1060
2365, 3, 1.0, 1061
2365, 4, 1.0, 1062
1320, 1, 1.0, 1063
2158, 1, 1.0, 1064
1127, 1, 1.0, 1065
1127, 2, 1.0, 1066
468, 1, 1.0, 1067
468, 2, 1.0, 1068
2286, 1, 1.0, 1069
2286, 2, 1.0, 1070
1884, 1, 1.0, 1071
1884, 2, 1.0, 1072
8472, 2, 1.0, 1073
461, 1, 1.0, 1074
461, 2, 1.0, 1075
2004, 1, 1.0, 1076
2004, 2, 1.0, 1077
8315, 1, 1.0, 1078
8315, 2, 1.0, 1079
8315, 3, 1.0, 1080
8315, 4, 1.0, 1081
8315, 5, 1.0, 1082
1846, 1, 1.0, 1083
1846, 2, 1.0, 1084
1846, 3, 1.0, 1085
1846, 4, 1.0, 1086
8315, 6, 1.0, 1087
8315, 7, 1.0, 1088
8315, 8, 1.0, 1089
8315, 9, 1.0, 1090
8315, 10, 1.0, 1091
1846, 5, 1.0, 1092
1846, 6, 1.0, 1093
1846, 7, 1.0, 1094
1846, 8, 1.0, 1095
1846, 9, 1.0, 1096
1846, 10, 1.0, 1097
1018, 1, 1.0, 1098
1018, 2, 1.0, 1099
1018, 3, 1.0, 1100
7808, 7, 1.0, 1101
7808, 8, 1.0, 1102
7808, 9, 1.0, 1103
7808, 10, 1.0, 1104
7808, 11, 1.0, 1105
7808, 12, 1.0, 1106
7808, 13, 1.0, 1107
1846, 11, 1.0, 1108
8315, 11, 1.0, 1109
8315, 12, 1.0, 1110
8315, 13, 1.0, 1111
8315, 14, 1.0, 1112
8315, 15, 1.0, 1113
8315, 16, 1.0, 1114
8315, 17, 1.0, 1115
1031, 1, 1.0, 1116
1031, 2, 1.0, 1117
1031, 3, 1.0, 1118
1031, 4, 1.0, 1119
1031, 5, 1.0, 1120
1031, 6, 1.0, 1121
1031, 7, 1.0, 1122
8315, 18, 1.0, 1123
8315, 19, 1.0, 1124
8315, 20, 1.0, 1125
1037, 1, 1.0, 1126
1037, 2, 1.0, 1127
1037, 3, 1.0, 1128
1037, 4, 1.0, 1129
1037, 5, 1.0, 1130
1037, 6, 1.0, 1131
1037, 7, 1.0, 1132
1031, 8, 1.0, 1133
1031, 9, 1.0, 1134
1031, 10, 1.0, 1135
7830, 1, 1.0, 1136
7830, 2, 1.0, 1137
7830, 3, 1.0, 1138
7830, 4, 1.0, 1139
7830, 5, 1.0, 1140
990, 3, 1.0, 1141
990, 4, 1.0, 1142
990, 5, 1.0, 1143
990, 6, 1.0, 1144
990, 7, 1.0, 1145
990, 8, 1.0, 1146
990, 9, 1.0, 1147
990, 10, 1.0, 1148
990, 11, 1.0, 1149
990, 12, 1.0, 1150
990, 13, 1.0, 1151
990, 14, 1.0, 1152
990, 15, 1.0, 1153
990, 16, 1.0, 1154
990, 17, 1.0, 1155
990, 18, 1.0, 1156
1000, 1, 1.0, 1157
1000, 2, 1.0, 1158
1000, 3, 1.0, 1159
1000, 4, 1.0, 1160
1000, 5, 1.0, 1161
1000, 6, 1.0, 1162
1000, 7, 1.0, 1163
1595, 4, 1.0, 1164
1595, 5, 1.0, 1165
1595, 6, 1.0, 1166
1595, 7, 1.0, 1167
2204, 1, 1.0, 1168
288, 1, 1.0, 1169
288, 2, 1.0, 1170
2264, 1, 1.0, 1171
2264, 2, 1.0, 1172
471, 1, 1.0, 1173
2407, 2, 1.0, 1174
1856, 1, 1.0, 1175
1508, 1, 1.0, 1176
344, 3, 1.0, 1177
1703, 7, 1.0, 1178
1702, 4, 1.0, 1179
2084, 1, 1.0, 1180
481, 3, 1.0, 1181
1945, 1, 1.0, 1182
448, 1, 1.0, 1183
7911, 3, 1.0, 1184
7911, 4, 1.0, 1185
111, 1, 1.0, 1186
317, 1, 1.0, 1187
317, 2, 1.0, 1188
317, 3, 1.0, 1189
1720, 1, 1.0, 1190
1720, 2, 1.0, 1191
471, 2, 1.0, 1192
8357, 3, 1.0, 1193
8357, 4, 1.0, 1194
1885, 3, 1.0, 1195
1176, 1, 1.0, 1196
1176, 2, 1.0, 1197
1176, 3, 1.0, 1198
1176, 4, 1.0, 1199
1176, 5, 1.0, 1200
1435, 1, 1.0, 1201
1435, 2, 1.0, 1202
1435, 3, 1.0, 1203
1435, 4, 1.0, 1204
1435, 5, 1.0, 1205
1435, 6, 1.0, 1206
1435, 7, 1.0, 1207
1435, 8, 1.0, 1208
1435, 9, 1.0, 1209
1435, 10, 1.0, 1210
1051, 1, 1.0, 1211
2407, 3, 1.0, 1212
426, 7, 1.0, 1213
426, 8, 1.0, 1214
426, 9, 1.0, 1215
426, 10, 1.0, 1216
426, 11, 1.0, 1217
426, 12, 1.0, 1218
426, 13, 1.0, 1219
426, 14, 1.0, 1220
426, 15, 1.0, 1221
426, 16, 1.0, 1222
426, 17, 1.0, 1223
2405, 1, 1.0, 1224
1855, 5, 1.0, 1225
1855, 6, 1.0, 1226
1855, 7, 1.0, 1227
1855, 8, 1.0, 1228
1855, 9, 1.0, 1229
1855, 10, 1.0, 1230
1855, 11, 1.0, 1231
1855, 12, 1.0, 1232
2245, 1, 1.0, 1233
2245, 2, 1.0, 1234
2245, 3, 1.0, 1235
2245, 4, 1.0, 1236
2314, 1, 1.0, 1237
7889, 1, 1.0, 1238
8142, 1, 1.0, 1239
145, 1, 1.0, 1240
8231, 1, 1.0, 1241
8231, 2, 1.0, 1242
915, 1, 1.0, 1243
7989, 1, 1.0, 1244
7989, 2, 1.0, 1245
7989, 3, 1.0, 1246
7989, 4, 1.0, 1247
7989, 5, 1.0, 1248
121, 1, 1.0, 1249
131, 1, 1.0, 1250
1846, 12, 1.0, 1251
1846, 13, 1.0, 1252
1846, 14, 1.0, 1253
1846, 15, 1.0, 1254
1846, 16, 1.0, 1255
1034, 1, 1.0, 1256
8003, 4, 1.0, 1257
8003, 5, 1.0, 1258
8003, 6, 1.0, 1259
1810, 1, 1.0, 1260
1810, 2, 1.0, 1261
2324, 1, 1.0, 1262
2384, 1, 1.0, 1263
2384, 2, 1.0, 1264
286, 1, 1.0, 1265
286, 2, 1.0, 1266
90, 1, 1.0, 1267
1168, 2, 1.0, 1268
1168, 3, 1.0, 1269
2304, 1, 1.0, 1270
2304, 2, 1.0, 1271
2304, 3, 1.0, 1272
2304, 4, 1.0, 1273
1879, 1, 1.0, 1274
1879, 2, 1.0, 1275
1879, 3, 1.0, 1276
1879, 4, 1.0, 1277
1895, 4, 1.0, 1278
295, 2, 1.0, 1279
1133, 1, 1.0, 1280
2196, 4, 1.0, 1281
1955, 2, 1.0, 1282
877, 1, 1.0, 1283
893, 1, 1.0, 1284
893, 2, 1.0, 1285
565, 1, 1.0, 1286
446, 5, 1.0, 1287
1176, 6, 1.0, 1288
1176, 7, 1.0, 1289
1176, 8, 1.0, 1290
1176, 9, 1.0, 1291
1176, 10, 1.0, 1292
818, 1, 1.0, 1293
818, 2, 1.0, 1294
1607, 1, 1.0, 1295
1783, 6, 1.0, 1296
559, 1, 1.0, 1297
288, 3, 1.0, 1298
8790, 1, 1.0, 1299
8790, 2, 1.0, 1300
1858, 7, 1.0, 1301
8535, 3, 1.0, 1302
1546, 1, 1.0, 1303
1546, 2, 1.0, 1304
1879, 5, 1.0, 1305
1853, 2, 1.0, 1306
917, 1, 1.0, 1307
2314, 2, 1.0, 1308
2280, 1, 1.0, 1309
1110, 1, 1.0, 1310
46, 1, 1.0, 1311
2267, 1, 1.0, 1312
1932, 4, 1.0, 1313
859, 2, 1.0, 1314
2351, 1, 1.0, 1315
859, 3, 1.0, 1316
2351, 2, 1.0, 1317
859, 4, 1.0, 1318
2351, 3, 1.0, 1319
877, 2, 1.0, 1320
877, 3, 1.0, 1321
877, 4, 1.0, 1322
1330, 3, 1.0, 1323
7830, 6, 1.0, 1324
385, 1, 1.0, 1325
385, 2, 1.0, 1326
859, 5, 1.0, 1327
659, 1, 1.0, 1328
1810, 3, 1.0, 1329
8588, 1, 1.0, 1330
1257, 1, 1.0, 1331
1257, 2, 1.0, 1332
974, 1, 1.0, 1333
974, 2, 1.0, 1334
974, 3, 1.0, 1335
974, 4, 1.0, 1336
974, 5, 1.0, 1337
974, 6, 1.0, 1338
1413, 1, 1.0, 1339
491, 1, 1.0, 1340
1683, 1, 1.0, 1341
295, 3, 1.0, 1342
8680, 5, 1.0, 1343
491, 2, 1.0, 1344
295, 4, 1.0, 1345
8640, 1, 1.0, 1346
1944, 1, 1.0, 1347
975, 1, 1.0, 1348
917, 2, 1.0, 1349
2080, 1, 1.0, 1350
2080, 2, 1.0, 1351
1879, 6, 1.0, 1352
475, 1, 1.0, 1353
8102, 1, 1.0, 1354
319, 1, 1.0, 1355
131, 2, 1.0, 1356
219, 1, 1.0, 1357
8315, 21, 1.0, 1358
8315, 22, 1.0, 1359
8315, 23, 1.0, 1360
8315, 24, 1.0, 1361
8315, 25, 1.0, 1362
8315, 26, 1.0, 1363
8315, 27, 1.0, 1364
8315, 28, 1.0, 1365
8315, 29, 1.0, 1366
8315, 30, 1.0, 1367
8094, 1, 1.0, 1368
8094, 2, 1.0, 1369
8094, 3, 1.0, 1370
8094, 4, 1.0, 1371
1035, 1, 1.0, 1372
1053, 1, 1.0, 1373
192, 1, 1.0, 1374
7882, 3, 1.0, 1375
1051, 2, 1.0, 1376
2264, 3, 1.0, 1377
1578, 1, 1.0, 1378
1799, 1, 1.0, 1379
1787, 2, 1.0, 1380
1787, 3, 1.0, 1381
1183, 1, 1.0, 1382
1183, 2, 1.0, 1383
2235, 1, 1.0, 1384
2235, 2, 1.0, 1385
2235, 3, 1.0, 1386
2235, 4, 1.0, 1387
2235, 5, 1.0, 1388
2235, 6, 1.0, 1389
2235, 7, 1.0, 1390
2235, 8, 1.0, 1391
2235, 9, 1.0, 1392
2235, 10, 1.0, 1393
2235, 11, 1.0, 1394
1412, 1, 1.0, 1395
1412, 2, 1.0, 1396
698, 4, 1.0, 1397
698, 5, 1.0, 1398
698, 6, 1.0, 1399
698, 7, 1.0, 1400
698, 8, 1.0, 1401
1354, 1, 1.0, 1402
377, 1, 1.0, 1403
377, 2, 1.0, 1404
377, 3, 1.0, 1405
377, 4, 1.0, 1406
377, 5, 1.0, 1407
413, 1, 1.0, 1408
456, 1, 1.0, 1409
309, 1, 1.0, 1410
309, 2, 1.0, 1411
309, 3, 1.0, 1412
715, 1, 1.0, 1413
715, 2, 1.0, 1414
909, 1, 1.0, 1415
909, 2, 1.0, 1416
227, 1, 1.0, 1417
1838, 1, 1.0, 1418
1838, 2, 1.0, 1419
1329, 1, 1.0, 1420
1402, 1, 1.0, 1421
1486, 1, 1.0, 1422
1864, 2, 1.0, 1423
1864, 3, 1.0, 1424
1864, 4, 1.0, 1425
113, 1, 1.0, 1426
2353, 1, 1.0, 1427
1418, 1, 1.0, 1428
1944, 2, 1.0, 1429
1944, 3, 1.0, 1430
1944, 4, 1.0, 1431
1944, 5, 1.0, 1432
1944, 6, 1.0, 1433
1006, 1, 1.0, 1434
1006, 2, 1.0, 1435
1006, 3, 1.0, 1436
1006, 4, 1.0, 1437
1006, 5, 1.0, 1438
322, 1, 1.0, 1439
407, 1, 1.0, 1440
8314, 1, 1.0, 1441
8314, 2, 1.0, 1442
8314, 3, 1.0, 1443
2030, 1, 1.0, 1444
2030, 2, 1.0, 1445
2030, 3, 1.0, 1446
2030, 4, 1.0, 1447
2030, 5, 1.0, 1448
2030, 6, 1.0, 1449
1038, 1, 1.0, 1450
8843, 1, 1.0, 1451
2324, 2, 1.0, 1452
2324, 3, 1.0, 1453
2324, 4, 1.0, 1454
1508, 2, 1.0, 1455
1776, 1, 1.0, 1456
8269, 1, 1.0, 1457
1793, 1, 1.0, 1458
1776, 2, 1.0, 1459
2036, 1, 1.0, 1460
2036, 2, 1.0, 1461
2036, 3, 1.0, 1462
2275, 1, 1.0, 1463
806, 1, 1.0, 1464
1858, 8, 1.0, 1465
812, 1, 1.0, 1466
348, 1, 1.0, 1467
342, 1, 1.0, 1468
2117, 2, 1.0, 1469
2117, 3, 1.0, 1470
2091, 1, 1.0, 1471
2091, 2, 1.0, 1472
2091, 3, 1.0, 1473
2091, 4, 1.0, 1474
458, 1, 1.0, 1475
458, 2, 1.0, 1476
2268, 1, 1.0, 1477
2268, 2, 1.0, 1478
304, 3, 1.0, 1479
304, 4, 1.0, 1480
229, 1, 1.0, 1481
1907, 1, 1.0, 1482
2215, 1, 1.0, 1483
1809, 1, 1.0, 1484
1512, 1, 1.0, 1485
633, 1, 1.0, 1486
8302, 1, 1.0, 1487
8302, 2, 1.0, 1488
8302, 3, 1.0, 1489
1442, 1, 1.0, 1490
1442, 2, 1.0, 1491
1442, 3, 1.0, 1492
1419, 1, 1.0, 1493
1419, 2, 1.0, 1494
1419, 3, 1.0, 1495
1429, 1, 1.0, 1496
1429, 2, 1.0, 1497
1429, 3, 1.0, 1498
1435, 11, 1.0, 1499
1435, 12, 1.0, 1500
1435, 13, 1.0, 1501
1904, 1, 1.0, 1502
8340, 1, 1.0, 1503
8340, 2, 1.0, 1504
1412, 3, 1.0, 1505
51, 1, 1.0, 1506
51, 2, 1.0, 1507
1412, 4, 1.0, 1508
2402, 1, 1.0, 1509
71, 1, 1.0, 1510
8843, 2, 1.0, 1511
2314, 3, 1.0, 1512
2314, 4, 1.0, 1513
2314, 5, 1.0, 1514
2314, 6, 1.0, 1515
2314, 7, 1.0, 1516
2314, 8, 1.0, 1517
2314, 9, 1.0, 1518
2314, 10, 1.0, 1519
2314, 11, 1.0, 1520
2314, 12, 1.0, 1521
2314, 13, 1.0, 1522
2314, 14, 1.0, 1523
2314, 15, 1.0, 1524
295, 5, 1.0, 1525
2203, 5, 1.0, 1526
638, 1, 1.0, 1527
1508, 3, 1.0, 1528
1508, 4, 1.0, 1529
8832, 4, 1.0, 1530
8832, 5, 1.0, 1531
8832, 6, 1.0, 1532
8832, 7, 1.0, 1533
8832, 8, 1.0, 1534
7889, 2, 1.0, 1535
7889, 3, 1.0, 1536
7889, 4, 1.0, 1537
7889, 5, 1.0, 1538
7889, 6, 1.0, 1539
7889, 7, 1.0, 1540
1458, 2, 1.0, 1541
1458, 3, 1.0, 1542
1458, 4, 1.0, 1543
7850, 1, 1.0, 1544
7850, 2, 1.0, 1545
8830, 1, 1.0, 1546
8830, 2, 1.0, 1547
535, 1, 1.0, 1548
535, 2, 1.0, 1549
535, 3, 1.0, 1550
535, 4, 1.0, 1551
535, 5, 1.0, 1552
535, 6, 1.0, 1553
543, 1, 1.0, 1554
543, 2, 1.0, 1555
543, 3, 1.0, 1556
543, 4, 1.0, 1557
543, 5, 1.0, 1558
543, 6, 1.0, 1559
1993, 2, 1.0, 1560
523, 1, 1.0, 1561
523, 2, 1.0, 1562
523, 3, 1.0, 1563
543, 7, 1.0, 1564
543, 8, 1.0, 1565
407, 2, 1.0, 1566
562, 5, 1.0, 1567
562, 6, 1.0, 1568
8185, 5, 1.0, 1569
8185, 6, 1.0, 1570
8185, 7, 1.0, 1571
8185, 8, 1.0, 1572
8185, 9, 1.0, 1573
8185, 10, 1.0, 1574
8185, 11, 1.0, 1575
8185, 12, 1.0, 1576
7889, 8, 1.0, 1577
28, 1, 1.0, 1578
308, 1, 1.0, 1579
308, 2, 1.0, 1580
295, 6, 1.0, 1581
295, 7, 1.0, 1582
8357, 5, 1.0, 1583
8673, 1, 1.0, 1584
8405, 1, 1.0, 1585
8673, 2, 1.0, 1586
8357, 6, 1.0, 1587
1858, 9, 1.0, 1588
573, 1, 1.0, 1589
7823, 4, 1.0, 1590
7823, 5, 1.0, 1591
1713, 1, 1.0, 1592
796, 2, 1.0, 1593
2235, 12, 1.0, 1594
2235, 13, 1.0, 1595
2235, 14, 1.0, 1596
2235, 15, 1.0, 1597
2235, 16, 1.0, 1598
2235, 17, 1.0, 1599
2235, 18, 1.0, 1600
2235, 19, 1.0, 1601
2235, 20, 1.0, 1602
181, 6, 1.0, 1603
1451, 1, 1.0, 1604
1041, 1, 1.0, 1605
1846, 17, 1.0, 1606
43, 1, 1.0, 1607
43, 2, 1.0, 1608
43, 3, 1.0, 1609
1013, 1, 1.0, 1610
1128, 1, 1.0, 1611
1128, 2, 1.0, 1612
1128, 3, 1.0, 1613
1508, 5, 1.0, 1614
1993, 3, 1.0, 1615
1993, 4, 1.0, 1616
1993, 5, 1.0, 1617
8269, 2, 1.0, 1618
2323, 1, 1.0, 1619
2323, 2, 1.0, 1620
7751, 8, 1.0, 1621
16, 1, 1.0, 1622
16, 2, 1.0, 1623
16, 3, 1.0, 1624
16, 4, 1.0, 1625
8340, 3, 1.0, 1626
8340, 4, 1.0, 1627
8196, 5, 1.0, 1628
543, 9, 1.0, 1629
839, 1, 1.0, 1630
1426, 1, 1.0, 1631
1426, 2, 1.0, 1632
8082, 2, 1.0, 1633
8082, 3, 1.0, 1634
8082, 4, 1.0, 1635
258, 1, 1.0, 1636
258, 2, 1.0, 1637